/*--------------------------------*- C++ -*----------------------------------*\
  =========                 |
  \\      /  F ield         | OpenFOAM: The Open Source CFD Toolbox
   \\    /   O peration     | Website:  https://openfoam.org
    \\  /    A nd           | Version:  dev
     \\/     M anipulation  |
\*---------------------------------------------------------------------------*/
FoamFile
{
    format      ascii;
    class       extendedFeatureEdgeMesh;
    location    "constant/extendedFeatureEdgeMesh";
    object      buildings.extendedFeatureEdgeMesh;
}
// * * * * * * * * * * * * * * * * * * * * * * * * * * * * * * * * * * * * * //

// points

541
(
(36.1746 -29.7334 0)
(19.1746 -29.7334 0)
(19.1746 -46.7334 50)
(19.1746 -46.7334 0)
(36.1746 -46.7334 0)
(36.1746 -46.7334 50)
(73.8462 -29.2785 0)
(73.8462 -29.2785 42)
(73.8462 -32.2785 0)
(73.8462 -32.2785 42)
(104.698 -21.8091 0)
(81.6975 -21.8091 0)
(81.6975 -21.8091 15)
(104.698 -21.8091 15)
(81.6975 -39.8091 0)
(81.6975 -39.8091 15)
(104.698 -39.8091 15)
(104.698 -39.8091 0)
(73.3003 18.8042 0)
(73.3003 3.07833 15)
(73.3003 3.07833 0)
(73.3003 18.8042 15)
(35.7943 3.07833 15)
(35.7943 3.07833 0)
(61.3488 27.274 0)
(61.3488 27.274 15)
(41.2771 18.2182 17)
(41.2771 23.9397 17)
(51.4804 18.2182 17)
(51.4804 23.9397 17)
(151.816 -51.194 0)
(139.816 -51.194 48)
(139.816 -51.194 0)
(151.816 -51.194 48)
(139.816 -36.194 0)
(139.816 -36.194 48)
(151.816 -36.194 48)
(151.816 -36.194 0)
(157.816 -36.194 48)
(157.816 -36.194 0)
(169.816 -36.194 48)
(169.816 -36.194 0)
(169.816 -51.194 0)
(169.816 -51.194 48)
(157.816 -51.194 48)
(157.816 -51.194 0)
(71.7673 58.0754 0)
(56.7673 58.0754 0)
(56.7673 58.0754 34)
(71.7673 58.0754 34)
(71.7673 38.0754 34)
(71.7673 38.0754 0)
(56.7673 38.0754 0)
(56.7673 38.0754 34)
(56.7673 43.0754 0)
(56.7673 43.0754 34)
(56.7673 53.0754 34)
(56.7673 53.0754 0)
(96.0562 8.4135 24)
(96.0562 8.4135 0)
(89.6337 16.0785 0)
(88.3401 40.0436 0)
(93.9002 48.3554 0)
(93.9002 48.3554 24)
(112.74 -1.66819 0)
(112.74 10.3318 55)
(112.74 10.3318 0)
(112.74 -1.66819 55)
(132.74 10.3318 0)
(132.74 10.3318 55)
(132.74 -7.66819 0)
(132.74 -19.6682 0)
(132.74 -1.66819 0)
(112.74 -19.6682 0)
(112.74 -7.66819 0)
(132.74 -19.6682 55)
(132.74 -7.66819 55)
(132.74 -1.66819 55)
(112.74 -19.6682 55)
(112.74 -7.66819 55)
(127.74 8.59903 57)
(117.74 8.59903 57)
(127.74 0.599032 57)
(117.74 0.599032 57)
(118 20 0)
(118 20 44)
(118 55 44)
(118 55 0)
(134 55 44)
(180 20 0)
(180 55 0)
(164 55 44)
(180 20 44)
(180 55 44)
(201.182 10.7909 60)
(201.182 10.7909 0)
(177.3 10.7909 0)
(177.3 -31.1024 0)
(177.3 -18.2091 0)
(177.3 -0.209072 0)
(201.182 -0.209072 0)
(201.182 -0.209072 60)
(201.182 -18.2091 60)
(201.182 -31.1024 60)
(201.182 -31.1024 0)
(201.182 -18.2091 0)
(119.71 -45 10)
(119.71 -45 0)
(61.4687 -63.4833 0)
(61.4687 -53.7523 0)
(119.71 -63.4833 0)
(119.71 -63.4833 10)
(61.4687 -53.7523 10)
(61.4687 -63.4833 10)
(70.8462 -29.2785 0)
(70.8462 -29.2785 42)
(70.8462 -32.2785 0)
(70.8462 -32.2785 42)
(93.6975 -24.8091 15)
(93.6975 -36.8091 15)
(95.4245 -36.5553 15)
(96.4414 -25.4732 15)
(93.6976 -24.8091 15)
(93.6976 -36.8091 15)
(61.3488 18.8042 0)
(61.3488 18.8042 15)
(41.2771 18.2182 15)
(41.2771 23.9397 15)
(51.4804 18.2182 15)
(51.4804 23.9397 15)
(151.816 -38.194 48)
(151.816 -38.194 0)
(157.816 -38.194 0)
(157.816 -38.194 48)
(157.816 -49.194 48)
(157.816 -49.194 0)
(151.816 -49.194 0)
(151.816 -49.194 48)
(59.7673 43.0754 34)
(59.7673 43.0754 0)
(59.7673 53.0754 0)
(59.7673 53.0754 34)
(114.74 -1.66819 0)
(114.74 -1.66819 55)
(130.74 -7.66819 0)
(130.74 -1.66819 0)
(114.74 -7.66819 0)
(130.74 -7.66819 55)
(127.74 0.599032 55)
(130.74 -1.66819 55)
(114.74 -7.66819 55)
(127.74 8.59903 55)
(117.74 0.599032 55)
(117.74 8.59903 55)
(134 35 15)
(134 35 0)
(164 35 0)
(164 35 15)
(134 55 15)
(164 55 15)
(36.9029 -16.5503 66)
(35.2188 -16.5503 66)
(36.9029 -10.8662 66)
(35.2188 -10.8662 66)
(12.1006 -10.8662 66)
(12.1006 -16.5503 66)
(10.4165 -10.8662 66)
(10.4165 -16.5503 66)
(177.3 -18.2091 44.9666)
(177.3 -18.2091 32.9666)
(177.3 -0.209072 44.9666)
(177.3 -0.209072 32.9666)
(201.182 -0.209072 44.9666)
(201.182 -0.209072 32.9666)
(201.182 -18.2091 44.9666)
(201.182 -18.2091 32.9666)
(94.5704 -36.7453 15)
(95.1091 -24.9775 15)
(37.3399 -16.4524 66.437)
(34.7817 -16.4524 66.437)
(37.3399 -10.9641 66.437)
(34.7817 -10.9641 66.437)
(12.5376 -10.9641 66.437)
(12.4639 -16.4524 66.5)
(9.97945 -10.9641 66.437)
(9.91647 -16.4524 66.3633)
(19.1746 -29.7334 38)
(36.1746 -29.7334 38)
(19.1746 -41.7334 50)
(36.1746 -41.7334 50)
(58.8462 -13.5992 0)
(58.8462 -38.5992 0)
(58.8462 -38.5992 42)
(58.8462 -13.5992 42)
(58.9089 -13.0429 42)
(58.9089 -13.0429 0)
(59.0938 -12.5145 42)
(59.0938 -12.5145 0)
(59.3917 -12.0405 42)
(59.3917 -12.0405 0)
(59.7875 -11.6446 42)
(59.7875 -11.6446 0)
(60.2615 -11.3468 42)
(60.2615 -11.3468 0)
(60.7899 -11.1619 42)
(60.7899 -11.1619 0)
(61.3462 -11.0992 42)
(61.3462 -11.0992 0)
(68.3462 -11.0992 42)
(68.3462 -11.0992 0)
(68.9025 -11.1619 42)
(68.9025 -11.1619 0)
(69.4309 -11.3468 42)
(69.4309 -11.3468 0)
(69.905 -11.6446 42)
(69.905 -11.6446 0)
(70.3008 -12.0405 42)
(70.3008 -12.0405 0)
(70.5987 -12.5145 42)
(70.5987 -12.5145 0)
(70.7836 -13.0429 42)
(70.7836 -13.0429 0)
(70.8462 -13.5992 42)
(70.8462 -13.5992 0)
(70.8462 -38.5992 0)
(70.8462 -38.5992 42)
(70.7836 -39.1555 42)
(70.7836 -39.1555 0)
(70.5987 -39.6839 42)
(70.5987 -39.6839 0)
(70.3008 -40.1579 42)
(70.3008 -40.1579 0)
(69.905 -40.5538 42)
(69.905 -40.5538 0)
(69.4309 -40.8516 42)
(69.4309 -40.8516 0)
(68.9025 -41.0365 42)
(68.9025 -41.0365 0)
(68.3462 -41.0992 42)
(68.3462 -41.0992 0)
(61.3462 -41.0992 42)
(61.3462 -41.0992 0)
(60.7899 -41.0365 42)
(60.7899 -41.0365 0)
(60.2615 -40.8516 42)
(60.2615 -40.8516 0)
(59.7875 -40.5538 42)
(59.7875 -40.5538 0)
(59.3917 -40.1579 42)
(59.3917 -40.1579 0)
(59.0938 -39.6839 42)
(59.0938 -39.6839 0)
(58.9089 -39.1555 42)
(58.9089 -39.1555 0)
(93.6976 -24.8091 15)
(93.6976 -36.8091 15)
(93.6976 -24.8091 15)
(93.6976 -36.8091 15)
(93.6976 -24.8091 15)
(93.6976 -36.8091 15)
(93.6976 -24.8091 15)
(93.6976 -36.8091 15)
(93.6976 -24.8091 15)
(93.6976 -36.8091 15)
(93.6976 -24.8091 15)
(93.6976 -36.8091 15)
(93.6976 -24.8091 15)
(93.6976 -36.8091 15)
(93.6976 -24.8091 15)
(93.6976 -36.8091 15)
(93.6976 -24.8091 15)
(93.6976 -36.8091 15)
(93.6976 -24.8091 15)
(93.6976 -36.8091 15)
(93.6976 -24.8091 15)
(93.6976 -36.8091 15)
(93.6975 -24.8091 15)
(93.6975 -36.8091 15)
(38.1752 26.8575 0)
(39.0641 27.1686 0)
(40 27.274 0)
(37.3778 26.3565 0)
(36.7118 25.6905 0)
(36.2108 24.8931 0)
(35.8997 24.0042 0)
(35.7943 23.0683 0)
(35.7943 23.0683 15)
(38.1752 26.8575 15)
(37.3778 26.3565 15)
(36.7118 25.6905 15)
(36.2108 24.8931 15)
(35.8997 24.0042 15)
(39.0641 27.1686 15)
(40 27.274 15)
(92.845 12.246 24)
(89.6337 16.0785 19)
(90.7147 38.0733 0)
(88.3401 40.0436 19)
(92.6359 35.6589 0)
(94.0224 32.9025 0)
(94.8156 29.9207 0)
(94.9819 26.8396 0)
(94.5143 23.7897 0)
(93.4325 20.9001 0)
(91.7824 18.2929 0)
(91.1201 44.1995 24)
(99.044 11.3795 0)
(101.492 14.8047 0)
(103.33 18.5922 0)
(104.507 22.6344 0)
(104.989 26.8167 0)
(104.761 31.0206 0)
(103.832 35.1268 0)
(102.228 39.0188 0)
(99.9922 42.5864 0)
(97.1899 45.7282 0)
(99.044 11.3795 24)
(101.492 14.8047 24)
(103.33 18.5922 24)
(104.507 22.6344 24)
(104.989 26.8167 24)
(104.761 31.0206 24)
(103.832 35.1268 24)
(102.228 39.0188 24)
(99.9922 42.5864 24)
(97.1899 45.7282 24)
(119 20 0)
(119 20 44)
(134 35 44)
(133.624 31.6622 44)
(133.624 31.6622 0)
(132.514 28.4917 44)
(132.514 28.4917 0)
(130.727 25.6476 44)
(130.727 25.6476 0)
(128.352 23.2725 44)
(128.352 23.2725 0)
(125.508 21.4855 44)
(125.508 21.4855 0)
(122.338 20.3761 44)
(122.338 20.3761 0)
(134 55 0)
(164 55 0)
(179 20 44)
(175.662 20.3761 44)
(175.662 20.3761 0)
(179 20 0)
(172.492 21.4855 44)
(172.492 21.4855 0)
(169.648 23.2725 44)
(169.648 23.2725 0)
(167.273 25.6476 44)
(167.273 25.6476 0)
(165.486 28.4917 44)
(165.486 28.4917 0)
(164.376 31.6622 44)
(164.376 31.6622 0)
(164 35 44)
(42.5806 -14.497 60)
(42.5806 -12.9886 60)
(37.8665 -19.8182 60)
(39.2769 -19.2833 60)
(37.8665 -7.66747 60)
(36.3691 -7.48565 60)
(42.2196 -11.524 60)
(8.47112 -8.20237 60)
(7.2297 -9.05926 60)
(39.2769 -8.20237 60)
(41.5186 -10.1883 60)
(40.5183 -9.05926 60)
(40.5183 -18.4264 60)
(6.22942 -17.2973 60)
(7.2297 -18.4264 60)
(8.47112 -19.2833 60)
(5.52842 -15.9616 60)
(9.88154 -7.66747 60)
(9.88154 -19.8182 60)
(11.379 -7.48565 60)
(5.16742 -12.9886 60)
(5.16742 -14.497 60)
(41.5186 -17.2973 60)
(11.379 -20 60)
(5.52842 -11.524 60)
(36.3691 -20 60)
(42.2196 -15.9616 60)
(6.22942 -10.1883 60)
(9.88154 -19.8182 0)
(11.379 -20 0)
(8.47112 -19.2833 0)
(7.2297 -18.4264 0)
(6.22942 -17.2973 0)
(5.52842 -15.9616 0)
(5.16742 -14.497 0)
(5.16742 -12.9886 0)
(5.52842 -11.524 0)
(6.22942 -10.1883 0)
(7.2297 -9.05926 0)
(8.47112 -8.20237 0)
(9.88154 -7.66747 0)
(11.379 -7.48565 0)
(36.3691 -7.48565 0)
(36.3691 -20 0)
(37.8665 -7.66747 0)
(39.2769 -8.20237 0)
(40.5183 -9.05926 0)
(41.5186 -10.1883 0)
(42.2196 -11.524 0)
(42.5806 -12.9886 0)
(42.5806 -14.497 0)
(42.2196 -15.9616 0)
(41.5186 -17.2973 0)
(40.5183 -18.4264 0)
(39.2769 -19.2833 0)
(37.8665 -19.8182 0)
(177.396 10.7909 51.9044)
(177.681 10.7909 52.8424)
(178.143 10.7909 53.7068)
(178.765 10.7909 54.4645)
(184.3 10.7909 60)
(177.3 10.7909 50.9289)
(177.3 -18.2091 50.9289)
(177.3 -0.209072 50.9289)
(177.3 -31.1024 50.9289)
(177.396 -0.209072 51.9044)
(177.681 -0.209072 52.8424)
(178.143 -0.209072 53.7068)
(178.765 -0.209072 54.4645)
(184.3 -0.209072 60)
(177.396 -18.2091 51.9044)
(177.681 -18.2091 52.8424)
(178.143 -18.2091 53.7068)
(178.765 -18.2091 54.4645)
(184.3 -18.2091 60)
(177.396 -31.1024 51.9044)
(177.681 -31.1024 52.8424)
(178.143 -31.1024 53.7068)
(178.765 -31.1024 54.4645)
(184.3 -31.1024 60)
(103.918 -45 0)
(103.918 -45 10)
(74.6464 -53.7523 0)
(76.3933 -53.6502 0)
(78.1164 -53.3454 0)
(79.7922 -52.842 0)
(98.7719 -45.9103 0)
(100.448 -45.4069 0)
(102.171 -45.1021 0)
(102.171 -45.1021 10)
(100.448 -45.4069 10)
(98.7719 -45.9103 10)
(74.6464 -53.7523 10)
(76.3933 -53.6502 10)
(78.1164 -53.3454 10)
(79.7922 -52.842 10)
(92.2617 -24.9835 15)
(98.7605 -34.0289 15)
(97.861 -35.1296 15)
(96.7278 -35.9878 15)
(99.3759 -32.7476 15)
(99.6725 -31.3574 15)
(99.2619 -28.5645 15)
(99.6338 -29.9364 15)
(98.5777 -27.3185 15)
(97.6196 -26.2684 15)
(89.7188 -35.3002 15)
(88.7597 -34.2175 15)
(90.9092 -36.1219 15)
(92.2617 -36.6348 15)
(88.0874 -32.9368 15)
(87.7413 -31.5324 15)
(90.9092 -25.4964 15)
(89.7188 -26.3181 15)
(88.7597 -27.4007 15)
(88.0874 -28.6815 15)
(87.7413 -30.0859 15)
(134 45 18.2727)
(164 45 18.2727)
(38.9029 -12.8662 60)
(38.9029 -14.5503 60)
(14.0505 -12.4211 60)
(14.1006 -12.8662 60)
(36.9029 -10.8662 60)
(37.3479 -10.9163 60)
(37.3479 -16.5002 60)
(36.9029 -16.5503 60)
(33.2188 -12.8662 60)
(33.2689 -12.4211 60)
(13.9025 -11.9984 60)
(38.7048 -11.9984 60)
(38.8527 -12.4211 60)
(9.5487 -11.0642 60)
(9.97143 -10.9163 60)
(37.7706 -11.0642 60)
(37.7706 -16.3522 60)
(38.1499 -11.3025 60)
(33.4168 -11.9984 60)
(13.6643 -11.6192 60)
(38.4665 -11.6192 60)
(38.1499 -16.114 60)
(33.6551 -11.6192 60)
(9.16949 -16.114 60)
(8.8528 -15.7973 60)
(38.4665 -15.7973 60)
(9.5487 -16.3522 60)
(8.61453 -15.4181 60)
(10.4165 -10.8662 60)
(8.46661 -14.9953 60)
(9.97143 -16.5002 60)
(12.1006 -10.8662 60)
(12.5456 -10.9163 60)
(12.9684 -11.0642 60)
(13.3476 -11.3025 60)
(8.41647 -14.5503 60)
(38.7048 -15.4181 60)
(10.4165 -16.5503 60)
(12.1006 -16.5503 60)
(8.41647 -12.8662 60)
(8.46661 -12.4211 60)
(33.9718 -16.114 60)
(33.6551 -15.7973 60)
(12.5456 -16.5002 60)
(13.9025 -15.4181 60)
(13.6643 -15.7973 60)
(8.61453 -11.9984 60)
(38.8527 -14.9953 60)
(33.4168 -15.4181 60)
(12.9684 -16.3522 60)
(34.351 -16.3522 60)
(8.8528 -11.6192 60)
(34.7737 -16.5002 60)
(13.3476 -16.114 60)
(14.0505 -14.9953 60)
(33.2689 -14.9953 60)
(35.2188 -16.5503 60)
(14.1006 -14.5503 60)
(9.16949 -11.3025 60)
(33.2188 -14.5503 60)
(34.7737 -10.9163 60)
(35.2188 -10.8662 60)
(34.351 -11.0642 60)
(33.9718 -11.3025 60)
)

// edges

633
(
(1 186)
(0 1)
(187 0)
(188 186)
(2 188)
(3 2)
(1 3)
(189 187)
(0 4)
(4 3)
(189 5)
(5 4)
(2 5)
(190 191)
(192 193)
(193 194)
(195 190)
(194 196)
(197 195)
(196 198)
(199 197)
(198 200)
(201 199)
(200 202)
(203 201)
(202 204)
(205 203)
(204 206)
(207 205)
(206 208)
(209 207)
(208 210)
(211 209)
(210 212)
(213 211)
(212 214)
(215 213)
(214 216)
(217 215)
(216 218)
(219 217)
(218 220)
(221 219)
(220 222)
(223 221)
(114 223)
(222 115)
(6 114)
(7 6)
(115 7)
(8 6)
(9 8)
(7 9)
(116 8)
(9 117)
(224 116)
(117 225)
(225 226)
(227 224)
(226 228)
(229 227)
(228 230)
(231 229)
(230 232)
(233 231)
(232 234)
(235 233)
(234 236)
(237 235)
(236 238)
(239 237)
(238 240)
(241 239)
(240 242)
(243 241)
(242 244)
(245 243)
(244 246)
(247 245)
(246 248)
(249 247)
(248 250)
(251 249)
(250 252)
(253 251)
(252 192)
(191 253)
(11 12)
(10 11)
(13 10)
(12 13)
(15 12)
(14 15)
(11 14)
(13 16)
(17 10)
(16 17)
(17 14)
(15 16)
(254 122)
(123 255)
(256 254)
(255 257)
(258 256)
(257 259)
(260 258)
(259 261)
(262 260)
(261 263)
(264 262)
(263 265)
(266 264)
(265 267)
(268 266)
(267 269)
(270 268)
(269 271)
(272 270)
(271 273)
(274 272)
(273 275)
(276 274)
(118 276)
(275 277)
(277 119)
(19 20)
(20 18)
(18 21)
(21 19)
(19 22)
(22 23)
(23 20)
(18 124)
(125 21)
(278 279)
(279 280)
(281 278)
(282 281)
(283 282)
(284 283)
(285 284)
(23 285)
(24 124)
(280 24)
(286 22)
(287 288)
(288 289)
(289 290)
(290 291)
(291 286)
(292 287)
(293 292)
(125 25)
(25 293)
(24 25)
(126 26)
(27 127)
(26 27)
(128 28)
(28 26)
(129 29)
(29 28)
(27 29)
(31 32)
(32 30)
(30 33)
(33 31)
(34 32)
(35 34)
(31 35)
(36 37)
(37 34)
(35 36)
(131 37)
(36 130)
(130 133)
(132 131)
(38 39)
(39 132)
(133 38)
(40 41)
(41 39)
(38 40)
(42 41)
(43 42)
(40 43)
(44 45)
(45 42)
(43 44)
(135 45)
(44 134)
(134 137)
(136 135)
(30 136)
(137 33)
(47 48)
(46 47)
(49 46)
(48 49)
(49 50)
(50 51)
(51 46)
(52 51)
(53 52)
(50 53)
(54 52)
(55 54)
(53 55)
(55 138)
(139 54)
(140 139)
(138 141)
(141 56)
(56 57)
(57 140)
(47 57)
(56 48)
(294 295)
(58 294)
(295 60)
(60 59)
(59 58)
(61 296)
(297 61)
(296 298)
(298 299)
(299 300)
(300 301)
(301 302)
(302 303)
(303 304)
(304 60)
(305 297)
(306 59)
(307 306)
(308 307)
(309 308)
(310 309)
(311 310)
(312 311)
(313 312)
(314 313)
(315 314)
(62 315)
(61 62)
(58 316)
(316 317)
(317 318)
(318 319)
(319 320)
(320 321)
(321 322)
(322 323)
(323 324)
(324 325)
(325 63)
(63 305)
(62 63)
(65 66)
(66 64)
(64 67)
(67 65)
(68 66)
(65 69)
(69 68)
(64 142)
(143 67)
(144 70)
(70 71)
(68 72)
(72 145)
(145 144)
(71 73)
(73 74)
(74 146)
(146 142)
(76 147)
(75 76)
(149 77)
(147 149)
(77 69)
(78 75)
(79 78)
(150 79)
(143 150)
(77 72)
(76 70)
(75 71)
(78 73)
(79 74)
(153 81)
(81 80)
(80 151)
(82 148)
(80 82)
(82 83)
(83 152)
(83 81)
(84 326)
(85 84)
(327 85)
(328 329)
(330 155)
(329 331)
(332 330)
(331 333)
(334 332)
(333 335)
(336 334)
(335 337)
(338 336)
(337 339)
(340 338)
(339 327)
(326 340)
(85 86)
(87 84)
(86 87)
(87 341)
(328 88)
(88 86)
(157 154)
(155 156)
(158 88)
(341 342)
(343 344)
(345 346)
(344 347)
(348 345)
(347 349)
(350 348)
(349 351)
(352 350)
(351 353)
(354 352)
(353 355)
(356 354)
(355 357)
(156 356)
(159 158)
(89 346)
(342 90)
(90 89)
(91 159)
(357 91)
(92 343)
(89 92)
(93 91)
(92 93)
(93 90)
(358 359)
(360 361)
(362 363)
(359 364)
(365 366)
(367 362)
(364 368)
(368 369)
(369 367)
(361 370)
(371 372)
(372 373)
(374 371)
(375 365)
(373 376)
(377 375)
(378 379)
(379 374)
(370 380)
(376 381)
(382 378)
(381 383)
(380 384)
(385 382)
(366 385)
(384 358)
(383 360)
(363 377)
(386 387)
(388 386)
(389 388)
(390 389)
(391 390)
(392 391)
(393 392)
(394 393)
(395 394)
(396 395)
(397 396)
(398 397)
(399 398)
(400 399)
(387 401)
(402 400)
(403 402)
(404 403)
(405 404)
(406 405)
(407 406)
(408 407)
(409 408)
(410 409)
(411 410)
(412 411)
(413 412)
(401 413)
(414 415)
(415 416)
(416 417)
(417 418)
(419 414)
(418 94)
(96 419)
(95 96)
(94 95)
(420 168)
(170 421)
(168 170)
(171 169)
(97 422)
(169 98)
(98 97)
(96 99)
(99 171)
(421 423)
(423 424)
(424 425)
(425 426)
(95 100)
(100 99)
(426 427)
(94 101)
(101 172)
(174 102)
(102 103)
(172 174)
(175 173)
(173 100)
(105 175)
(104 105)
(103 104)
(427 101)
(420 428)
(428 429)
(429 430)
(430 431)
(431 432)
(432 102)
(105 98)
(422 433)
(433 434)
(434 435)
(435 436)
(104 97)
(103 437)
(437 436)
(107 438)
(106 107)
(439 106)
(108 109)
(109 440)
(440 441)
(441 442)
(443 444)
(442 443)
(110 108)
(445 446)
(444 445)
(446 438)
(107 110)
(447 439)
(448 447)
(449 448)
(111 110)
(106 111)
(112 113)
(450 112)
(451 450)
(452 451)
(449 453)
(453 452)
(113 111)
(113 108)
(112 109)
(115 114)
(117 116)
(454 118)
(118 119)
(455 456)
(456 457)
(458 455)
(457 120)
(459 458)
(460 461)
(461 459)
(462 460)
(463 462)
(121 463)
(464 465)
(466 464)
(467 466)
(119 467)
(465 468)
(468 469)
(470 454)
(471 470)
(472 471)
(473 472)
(474 473)
(469 474)
(124 125)
(126 127)
(128 126)
(127 129)
(129 128)
(130 131)
(133 132)
(134 135)
(137 136)
(138 139)
(141 140)
(142 143)
(151 148)
(148 152)
(152 153)
(153 151)
(146 150)
(149 145)
(147 144)
(155 154)
(156 157)
(475 158)
(154 475)
(157 476)
(476 159)
(477 478)
(479 480)
(481 482)
(483 484)
(485 486)
(487 479)
(488 489)
(489 477)
(490 491)
(482 492)
(493 483)
(492 494)
(486 495)
(496 487)
(497 488)
(498 493)
(494 497)
(495 499)
(500 501)
(502 498)
(503 500)
(501 504)
(491 505)
(504 506)
(507 503)
(505 508)
(508 509)
(509 510)
(510 511)
(511 496)
(506 512)
(513 502)
(514 507)
(515 514)
(512 516)
(516 517)
(518 519)
(520 515)
(521 522)
(517 523)
(524 513)
(478 524)
(519 525)
(526 520)
(527 518)
(523 528)
(529 527)
(530 526)
(531 521)
(525 532)
(533 529)
(522 530)
(480 534)
(528 535)
(534 531)
(532 536)
(535 490)
(537 538)
(539 537)
(540 539)
(499 540)
(538 481)
(484 533)
(536 485)
(170 172)
(173 171)
(168 174)
(175 169)
(120 121)
(122 123)
(177 122)
(123 176)
2{160}
2{161}
2{162}
2{163}
2{164}
2{165}
2{166}
2{167}
(176 120)
(121 177)
(178 160)
(160 178)
(179 161)
(161 179)
(180 162)
(162 180)
(181 163)
(163 181)
(182 164)
(164 182)
(183 165)
(165 183)
(184 166)
(166 184)
(185 167)
(167 185)
)

// concaveStart mixedStart nonFeatureStart
114 114 176
// internalStart flatStart openStart multipleStart
484 603 603 615
// normals

982
(
(0 -0 1)
(0.217093 -0.975629 0.0319075)
(-0 0 1)
(0 -0 1)
(0.347568 0.934123 0.0813061)
(-0 0 1)
(0 0 0)
(0.0930598 -0.987387 0.128092)
(0.12809 -0.987387 0.0930615)
(0 0 0)
(-0.128089 -0.987387 0.0930602)
(-0.0930575 -0.987387 0.128091)
(0 0 0)
(0.128101 0.987384 0.0930695)
(0.0930678 0.987384 0.128102)
(0 0 0)
(-0.0930654 0.987385 0.128102)
(-0.128099 0.987385 0.0930681)
(0 0 0)
(0.128101 0.987384 0.0930702)
(0.0930676 0.987384 0.128103)
(0 0 0)
(0.111952 -0.987387 0.111956)
(0.0718822 -0.987387 0.141068)
(0 0 0)
(-0.0930639 0.987385 0.128105)
(-0.128102 0.987385 0.0930673)
(0 0 0)
(-0.111951 -0.987387 0.111957)
(-0.141071 -0.987387 0.0718763)
(-1 0 0)
(0.118454 0.99296 0)
(0.0729205 -0.997338 0)
(0 1 0)
(-1 0 0)
(0 0 -1)
(0 1 -0)
(1 0 0)
(-1 0 0)
(0 0.707107 0.707107)
(-0 0 1)
(-1 0 0)
(0 -1 0)
(0 0 -1)
(0 0.707107 0.707107)
(1 -0 0)
(0 0 1)
(1 0 0)
(0 -1 0)
(-1 0 0)
(0 0 -1)
(-1 0 0)
(0 0 1)
(-0.993713 0.111961 0)
(0 0 1)
(-0.993713 0.111961 0)
(0 0 -1)
(-0.943881 0.330284 0)
(0 0 1)
(-0.943881 0.330284 0)
(0 0 -1)
(-0.846729 0.532024 0)
(-0.846729 0.532024 0)
(-0.707096 0.707118 0)
(-0 0 1)
(-0.707096 0.707118 0)
(0 -0 -1)
(-0.532044 0.846717 0)
(0 0 1)
(-0.532044 0.846717 0)
(0 0 -1)
(-0.330268 0.943887 0)
(-0.330268 0.943887 0)
(-0.111963 0.993712 0)
(0 0 1)
(-0.111963 0.993712 0)
(0 0 -1)
(0 1 0)
(-0 0 1)
(0 1 -0)
(0 0 -1)
(0.111961 0.993713 -0)
(0 0 1)
(0.111961 0.993713 -0)
(0 0 -1)
(0.330274 0.943885 -0)
(0 0 1)
(0.330274 0.943885 0)
(0 0 -1)
(0.532035 0.846723 -0)
(0.532035 0.846723 0)
(0.707106 0.707108 -0)
(0 0 1)
(0.707106 0.707108 0)
(0 0 -1)
(0.84672 0.532039 -0)
(0.84672 0.532039 0)
(0.943886 0.330272 -0)
(0 0 1)
(0.943886 0.330272 0)
(0 0 -1)
(0.993713 0.111954 -0)
(0 0 1)
(0.993713 0.111954 0)
(0 0 -1)
(1 0 0)
(0 0 -1)
(1 0 0)
(-0 0 1)
(0 1 0)
(0 0 -1)
(0 1 -0)
(1 0 0)
(-0 0 1)
(1 0 0)
(0 -1 0)
(0 0 -1)
(0 -1 0)
(0 0 1)
(1 0 0)
(0 -0 -1)
(1 0 0)
(0 0 1)
(0.993713 -0.111956 0)
(0 0 1)
(0.993713 -0.111956 0)
(0 0 -1)
(0.943887 -0.330268 0)
(0.943887 -0.330268 0)
(0.846715 -0.532046 0)
(0 0 1)
(0.846715 -0.532046 0)
(0 0 -1)
(0.707114 -0.7071 0)
(0 0 1)
(0.707114 -0.7071 0)
(0 0 -1)
(0.532022 -0.84673 0)
(0 0 1)
(0.532022 -0.84673 0)
(0 0 -1)
(0.330292 -0.943879 0)
(0.330292 -0.943879 0)
(0.111961 -0.993713 0)
(0 0 1)
(0.111961 -0.993713 0)
(0 0 -1)
(0 -1 0)
(0 0 1)
(0 -1 0)
(0 0 -1)
(-0.111963 -0.993712 0)
(0 0 1)
(-0.111963 -0.993712 0)
(0 0 -1)
(-0.330286 -0.943881 0)
(0 0 1)
(-0.330286 -0.943881 0)
(0 0 -1)
(-0.532032 -0.846725 0)
(0 0 1)
(-0.532032 -0.846725 0)
(0 0 -1)
(-0.707103 -0.70711 0)
(-0.707103 -0.70711 0)
(-0.846725 -0.532032 0)
(0 0 1)
(-0.846725 -0.532032 0)
(0 0 -1)
(-0.943883 -0.33028 0)
(-0.943883 -0.33028 0)
(-0.993712 -0.111963 0)
(0 0 1)
(-0.993712 -0.111963 0)
(0 0 -1)
(0 1 0)
(-1 0 0)
(0 0 -1)
(0 1 -0)
(1 -0 0)
(-0 0 1)
(-1 -0 0)
(0 0 1)
(0 -1 0)
(0 0 -1)
(0 0 1)
(1 0 0)
(0 -1 0)
(0 0 1)
(-1 0 0)
(-0.808736 0 -0.588172)
(0.0985082 0.992554 0.0716423)
(-0.808736 0 -0.588172)
(0.0728188 -0.995938 0.0529591)
(-1 0 0)
(0.135859 0.990728 0)
(-1 0 0)
(0.135859 -0.990728 0)
(-0.808736 0 -0.588172)
(0.103231 0.99182 0.0750774)
(-0.808736 0 -0.588172)
(0.103231 -0.99182 0.0750774)
(0 0 -1)
(0 0.989291 0.14596)
(0 0 -1)
(0 -0.989291 0.14596)
(-0.780869 0 -0.624695)
(0.130869 0.985856 0.104695)
(-0.780869 0 -0.624695)
(0.130869 -0.985856 0.104695)
(0 0 -1)
(0 0.992602 0.12141)
(0 0 -1)
(0 -0.992602 0.12141)
(0.529999 0 -0.847998)
(-0.0651146 0.992424 0.104183)
(0.529999 0 -0.847998)
(-0.0651146 -0.992424 0.104183)
(0 0 -1)
(0 0.991673 0.12878)
(0 0 -1)
(0 -0.991673 0.12878)
(0.808736 0 -0.588172)
(-0.097929 0.992642 0.0712211)
(0.808736 0 -0.588172)
(-0.097929 -0.992642 0.0712211)
(1 0 0)
(-0.160126 0.987097 0)
(1 0 0)
(-0.160126 -0.987097 0)
(0.566529 0 -0.824042)
(-0.090863 0.987054 0.132164)
(1 -0 0)
(-0.124091 0.992271 0)
(0.566529 0 -0.824042)
(-0.090863 -0.987054 0.132164)
(1 0 0)
(-0.124091 -0.992271 0)
(1 0 0)
(0 -1 0)
(-0 -0 -1)
(1 0 -0)
(0 1 0)
(0 0 1)
(-0 -1 0)
(0 0 1)
(-1 0 0)
(0 -0 -1)
(0 1 0)
(0 0 -1)
(-0.330276 0.943884 0)
(-0.111968 0.993712 0)
(0 0 -1)
(-0.532031 0.846725 0)
(0 0 -1)
(-0.707108 0.707106 0)
(0 0 -1)
(-0.846723 0.532034 0)
(0 0 -1)
(-0.943884 0.330276 0)
(0 0 -1)
(-0.993712 0.111968 0)
(-0 0 -1)
(-1 0 0)
(-0 -0 -1)
(1 0 0)
(0 1 0)
(0 0 1)
(0 0 1)
(-0.532031 0.846725 0)
(0 0 1)
(-0.707108 0.707106 0)
(0 0 1)
(-0.846723 0.532034 0)
(0 0 1)
(-0.943884 0.330276 0)
(0 0 1)
(-0.993712 0.111968 0)
(0 0 1)
(-0.330276 0.943884 0)
(0 0 1)
(-0.111968 0.993712 0)
(0 0 1)
(1 0 -0)
(0 0 1)
(0 1 0)
(-1 0 0)
(0 -1 0)
(-1 0 0)
(0 1 0)
(0 0 1)
(0 -1 0)
(1 0 0)
(1 0 0)
(0 1 -0)
(-0 0 1)
(0 -1 0)
(-1 0 0)
(0 0 -1)
(0 -1 0)
(1 0 0)
(0 0 1)
(0 0 -1)
(-1 0 0)
(0 1 0)
(0 0 1)
(0 1 0)
(1 0 -0)
(0 0 -1)
(-0 0 1)
(1 0 0)
(0 1 -0)
(-0 0 1)
(0 1 0)
(0 0 -1)
(-1 0 0)
(0 1 0)
(0 0 -1)
(-1 0 0)
(-0 0 1)
(0 1 0)
(1 0 0)
(0 0 -1)
(1 0 0)
(0 -1 0)
(-0 0 1)
(0 -1 0)
(-1 0 0)
(0 0 -1)
(0 0 1)
(-1 0 0)
(0 -1 0)
(0 0 1)
(0 -1 0)
(0 0 -1)
(1 0 -0)
(0 1 0)
(-1 0 0)
(0 0 -1)
(0 1 -0)
(1 0 -0)
(-0 0 1)
(-0 0 1)
(1 0 0)
(0 -1 0)
(0 0 -1)
(0 -0 -1)
(0 -1 0)
(-1 0 0)
(0 0 1)
(0 0 -1)
(-1 0 0)
(0 1 0)
(-0 0 1)
(0 1 -0)
(-1 0 0)
(0 0 -1)
(-1 0 0)
(0 0 1)
(0 -1 0)
(0 0 1)
(0 -1 0)
(-1 0 0)
(0 0 -1)
(-0.766495 -0.64225 -2.51707e-06)
(-0.489551 0.511309 0.706331)
(0 0 1)
(-0.766496 -0.642249 0)
(-0.717675 0.696378 0)
(0 0 -1)
(-0.766496 -0.642249 0)
(0.704507 -0.709697 0)
(-0.638548 -0.769582 0)
(0 0 -1)
(-0.831178 0.556007 0)
(-0.7825 -0.622651 0)
(0 0 -1)
(-0.893347 -0.449368 0)
(0 0 -1)
(-0.966391 -0.257076 0)
(0 0 -1)
(-0.998546 -0.0538986 0)
(0 0 -1)
(-0.988449 0.151553 0)
(0 -0 -1)
(-0.936528 0.350592 0)
(0 -0 -1)
(-0.84498 0.534799 0)
(0 -0 -1)
(-0.717675 0.696378 0)
(0 -0 -1)
(-0.431667 -0.561035 0.706331)
(-0.831178 0.556007 -4.32251e-09)
(0.704507 -0.709697 0)
(0 0 -1)
(0.813604 -0.58142 0)
(0 0 -1)
(0.899631 -0.436652 0)
(0 0 -1)
(0.960146 -0.279501 0)
(0 0 -1)
(0.993432 -0.11442 0)
(0 0 -1)
(0.998545 0.0539205 0)
(0 0 -1)
(0.975344 0.22069 0)
(0 0 -1)
(0.924487 0.381213 0)
(0 0 -1)
(0.847397 0.53096 0)
(0 -0 -1)
(0.746292 0.665619 0)
(0 -0 -1)
(0.624016 0.781411 -0)
(0 0 1)
(0.813604 -0.58142 0)
(-0 0 1)
(0.899631 -0.436652 0)
(-0 0 1)
(0.960146 -0.279501 0)
(-0 0 1)
(0.993432 -0.11442 0)
(-0 0 1)
(0.998545 0.0539205 -0)
(-0 0 1)
(0.975344 0.22069 -0)
(-0 0 1)
(0.924487 0.381213 -0)
(-0 0 1)
(0.847397 0.53096 -0)
(0 0 1)
(0.746292 0.665619 -0)
(0 0 1)
(0.624016 0.781411 -0)
(-0.831178 0.556007 0)
(-1 0 0)
(0 1 0)
(0 0 -1)
(-1 0 0)
(0 -1 0)
(0 0 1)
(0 0 -1)
(0 1 -0)
(-0 0 1)
(1 0 -0)
(0 -1 0)
(0 0 1)
(0 0 -1)
(0 1 0)
(1 0 0)
(0 -0 -1)
(1 0 0)
(0 -1 0)
(0 0 -1)
(1 0 0)
(0 -0 -1)
(0 -1 0)
(0 0 -1)
(-1 0 0)
(0 1 0)
(0 0 -1)
(-1 0 0)
(-0 0 1)
(0 1 0)
(1 0 -0)
(0 0 1)
(0 -1 0)
(0 0 1)
(1 0 -0)
(0 0 1)
(0 0 1)
(0 -1 0)
(-0 0 1)
(-1 0 0)
(0 1 0)
(-0 0 1)
(-1 0 0)
(0 1 0)
(-1 0 0)
(-0 0 1)
(0 1 -0)
(1 0 0)
(1 0 0)
(0 -1 0)
(0 0 1)
(0 -1 0)
(-1 0 0)
(0 -1 0)
(0 0 -1)
(0 -1 0)
(-1 0 0)
(0 0 1)
(0.993712 -0.11197 0)
(0 0 1)
(0.993712 -0.11197 0)
(0 0 -1)
(0.943882 -0.330284 0)
(0 0 1)
(0.943882 -0.330284 0)
(0.846732 -0.53202 0)
(0 0 1)
(0.846732 -0.53202 0)
(0 0 -1)
(0.707095 -0.707118 0)
(0 0 1)
(0.707095 -0.707118 0)
(0 0 -1)
(0.532045 -0.846716 0)
(0 0 1)
(0.532045 -0.846716 0)
(0 0 -1)
(0.330275 -0.943885 0)
(0.330275 -0.943885 0)
(0.111964 -0.993712 0)
(0 0 1)
(0.111964 -0.993712 0)
(0 0 -1)
(0 0 1)
(-1 0 0)
(0 0 -1)
(0 1 0)
(0 0 -1)
(0 1 -0)
(-0 0 1)
(1 0 -0)
(0 1 -0)
(0 -1 0)
(0 -0.31104 0.950397)
(0 -1 0)
(0 0 -1)
(1 -0 0)
(0 0 -1)
(0 1 -0)
(-0.111964 -0.993712 0)
(0 0 1)
(-0.111964 -0.993712 0)
(0 0 -1)
(-0.330275 -0.943885 0)
(-0.330275 -0.943885 0)
(-0.532045 -0.846716 0)
(0 0 1)
(-0.532045 -0.846716 0)
(0 0 -1)
(-0.707095 -0.707118 0)
(-0.707095 -0.707118 0)
(-0.846732 -0.53202 0)
(0 0 1)
(-0.846732 -0.53202 0)
(0 0 -1)
(-0.943882 -0.330284 0)
(0 0 1)
(-0.943882 -0.330284 0)
(0 0 -1)
(-0.993712 -0.11197 0)
(-0.993712 -0.11197 0)
(0 0.31104 0.950397)
(0 1 0)
(0 0 -1)
(0 -1 0)
(-0 0 -1)
(0 1 0)
(0 -0 -1)
(1 0 -0)
(-1 0 0)
(0 1 0)
(-1 0 0)
(0 0 1)
(0 -1 0)
(0 0 1)
(1 0 0)
(0 0 1)
(-0 1 0)
(0 0 1)
(1 0 -0)
(0 0 1)
(0.354606 -0.935016 0)
(0 0 1)
(0.120537 0.992709 -0)
(0 0 1)
(0.970943 0.239312 -0)
(0 0 1)
(-0.568065 0.822983 0)
(0 0 1)
(0.354605 0.935016 -0)
(0 0 1)
(0.885455 0.464725 -0)
(0 0 1)
(0.74851 0.663123 -0)
(0 0 1)
(0.568065 0.822984 -0)
(0 0 1)
(0.568064 -0.822984 0)
(0 0 1)
(-0.74851 -0.663124 0)
(0 0 1)
(-0.568065 -0.822984 0)
(0 0 1)
(-0.885457 -0.464722 0)
(0 0 1)
(-0.354604 0.935016 0)
(0 0 1)
(-0.354605 -0.935016 0)
(0 0 1)
(-0.120537 0.992709 0)
(0 0 1)
(-1 0 0)
(0 0 1)
(-0.970942 -0.239315 0)
(0 0 1)
(0.74851 -0.663123 0)
(0 0 1)
(-0.120535 -0.992709 0)
(0 0 1)
(-0.970942 0.239315 0)
(0 0 1)
(0 -1 0)
(0 0 1)
(0.885455 -0.464725 0)
(0 0 1)
(-0.885457 0.464722 0)
(0 0 1)
(-0.74851 0.663124 0)
(0 0 1)
(0.970943 -0.239312 0)
(0 0 1)
(0.120535 -0.992709 0)
(0 0 1)
(0 1 -0)
(-0.120535 -0.992709 0)
(0 0 -1)
(-0.354605 -0.935016 0)
(0 0 -1)
(-0.568065 -0.822984 0)
(0 0 -1)
(-0.74851 -0.663124 0)
(-0.885457 -0.464722 0)
(0 0 -1)
(-0.970942 -0.239315 0)
(0 0 -1)
(-1 0 0)
(-0.970942 0.239315 0)
(0 0 -1)
(-0.885457 0.464722 0)
(0 0 -1)
(-0.74851 0.663124 0)
(-0.568065 0.822983 0)
(0 0 -1)
(-0.354604 0.935016 0)
(-0.120537 0.992709 0)
(0 -0 -1)
(0 1 0)
(-0 -0 -1)
(0 -1 0)
(0 0 -1)
(0.120537 0.992709 0)
(-0 0 -1)
(0.354605 0.935016 0)
(0 0 -1)
(0.568065 0.822984 -0)
(0.74851 0.663123 -0)
(0 0 -1)
(0.885455 0.464725 0)
(0.970943 0.239312 0)
(0 0 -1)
(1 0 0)
(0.970943 -0.239312 0)
(0 0 -1)
(0.885455 -0.464725 0)
(0 0 -1)
(0.74851 -0.663123 0)
(0.568064 -0.822984 0)
(0 -0 -1)
(0.354606 -0.935016 0)
(0 0 -1)
(0.120535 -0.992709 0)
(0 1 0)
(-0.956949 0 0.290257)
(-0.8819 0 0.471436)
(0 1 0)
(-0.773023 0 0.634378)
(0 1 0)
(-0.707108 0 0.707105)
(0 1 0)
(-0.995182 0 0.0980436)
(0 1 0)
(-0 0 1)
(0 1 0)
(-1 0 0)
(0 0 -1)
(0 1 -0)
(1 0 -0)
(-1 0 0)
(0 1 0)
(-1 -0 0)
(0 -1 0)
(-1 0 0)
(0 0 1)
(-1 0 0)
(-0 0 -1)
(-1 0 0)
(0 -1 0)
(-1 0 0)
(0 1 0)
(0 0 -1)
(-1 0 0)
(0 0 -1)
(0 -1 0)
(-0.995182 0 0.0980436)
(0 -1 0)
(-0.956949 0 0.290257)
(0 -1 0)
(-0.8819 0 0.471436)
(-0.773023 0 0.634378)
(0 -1 0)
(1 0 0)
(-0.707108 0 0.707105)
(0 -1 0)
(1 0 0)
(0 -1 0)
(1 0 -0)
(0 1 0)
(0 0 1)
(1 0 0)
(0 -0 1)
(1 0 0)
(0 -0 -1)
(0 -1 0)
(1 0 0)
(0 1 0)
(0 0 -1)
(1 0 0)
(0 -1 0)
(0 0 1)
(0 1 0)
(-0.995182 0 0.0980436)
(0 1 0)
(-0.956949 0 0.290257)
(-0.8819 0 0.471436)
(0 1 0)
(-0.773023 0 0.634378)
(0 1 0)
(-0.707108 0 0.707105)
(-0 0 1)
(-0.995182 0 0.0980436)
(0 -1 0)
(-0.956949 0 0.290257)
(0 -1 0)
(-0.8819 0 0.471436)
(-0.773023 0 0.634378)
(0 -1 0)
(0 -1 0)
(0 -1 0)
(-0.707108 0 0.707105)
(0 1 0)
(-0 -0 -1)
(1 0 -0)
(0 1 0)
(0 0 1)
(-0 0 -1)
(-1 0 0)
(0 1 0)
(0 0 -1)
(-0.0583303 0.998297 0)
(0 0 -1)
(-0.174193 0.984712 0)
(0 0 -1)
(-0.343057 0.939315 0)
(0 0 -1)
(-0.287683 0.957726 0)
(0 0 -1)
(0 -1 0)
(0 0 -1)
(-0.174192 0.984712 0)
(-0.287675 0.957728 0)
(0 0 -1)
(-0.0583329 0.998297 0)
(1 0 0)
(-0.0583329 0.998297 0)
(0 0 1)
(-0.174192 0.984712 0)
(0 0 1)
(-0.287675 0.957728 0)
(0 0 1)
(-1 0 0)
(0 1 0)
(0 0 1)
(-0.0583303 0.998297 0)
(0 0 1)
(-0.174193 0.984712 0)
(0 0 1)
(-0.343057 0.939315 0)
(0 0 1)
(-0.287683 0.957726 0)
(0 0 1)
(-0 -1 0)
(0 0 1)
(-0.120525 0.992602 0.0146343)
(0 0 1)
(0 0 1)
(0.761923 -0.622692 0.178121)
(-0 0 1)
(0.598246 -0.789978 0.134298)
(0 0 1)
(0.881422 -0.42329 0.209572)
(-0 0 1)
(0.398014 -0.914076 0.0777811)
(0 0 1)
(0.974128 -0.207871 0.08868)
(0 0 1)
(0.961533 0.260645 0.0867096)
(0 0 1)
(0.995399 0.0271126 0.0918964)
(-0 0 1)
(0.874202 0.480044 0.0729927)
(-0 0 1)
(0.727337 0.663655 0.174768)
(-0 0 1)
(0.554497 0.821604 0.132284)
(0 0 1)
(-0.74544 -0.6604 0.090506)
(0 0 1)
(-0.566719 -0.821032 0.068818)
(0 0 1)
(-0.354273 -0.934152 0.0430161)
(0 0 1)
(-0.120525 -0.992602 0.0146343)
(0 0 1)
(-0.86817 -0.455657 0.196613)
(0 0 1)
(-0.947635 -0.233564 0.2178)
(0 0 1)