/*--------------------------------*- C++ -*----------------------------------*\
  =========                 |
  \\      /  F ield         | OpenFOAM: The Open Source CFD Toolbox
   \\    /   O peration     | Website:  https://openfoam.org
    \\  /    A nd           | Version:  dev
     \\/     M anipulation  |
\*---------------------------------------------------------------------------*/
FoamFile
{
    format      ascii;
    class       extendedFeatureEdgeMesh;
    location    "constant/extendedFeatureEdgeMesh";
    object      CHILLER.extendedFeatureEdgeMesh;
}
// * * * * * * * * * * * * * * * * * * * * * * * * * * * * * * * * * * * * * //

// points

6264
(
(0 0 0.295276)
(0 2.65748 0.295276)
(0 2.65748 0)
(0 0 0)
(12.1063 0 0.295276)
(12.1063 2.65748 0)
(12.1063 2.65748 0.295276)
(12.1063 0 0)
(0.202007 0.179815 2.65791)
(0.202007 2.38733 2.65791)
(0.202007 2.38733 0.442914)
(0.202007 0.179815 0.442914)
(11.8795 0.179815 2.65791)
(11.8795 2.38733 0.442914)
(11.8795 2.38733 2.65791)
(11.8795 0.179815 0.442914)
(0 7 0.295276)
(0 9.65748 0.295276)
(0 9.65748 0)
(0 7 0)
(12.1063 7 0.295276)
(12.1063 9.65748 0)
(12.1063 9.65748 0.295276)
(12.1063 7 0)
(0.202007 7.17981 2.65791)
(0.202007 9.38733 2.65791)
(0.202007 9.38733 0.442914)
(0.202007 7.17981 0.442914)
(11.8795 7.17981 2.65791)
(11.8795 9.38733 0.442914)
(11.8795 9.38733 2.65791)
(11.8795 7.17981 0.442914)
(0 14 0.295276)
(0 16.6575 0.295276)
(0 16.6575 0)
(0 14 0)
(12.1063 14 0.295276)
(12.1063 16.6575 0)
(12.1063 16.6575 0.295276)
(12.1063 14 0)
(0.202007 14.1798 2.65791)
(0.202007 16.3873 2.65791)
(0.202007 16.3873 0.442914)
(0.202007 14.1798 0.442914)
(11.8795 14.1798 2.65791)
(11.8795 16.3873 0.442914)
(11.8795 16.3873 2.65791)
(11.8795 14.1798 0.442914)
(14.4 3.6 0.295276)
(14.4 6.25748 0.295276)
(14.4 6.25748 0)
(14.4 3.6 0)
(26.5063 3.6 0.295276)
(26.5063 6.25748 0)
(26.5063 6.25748 0.295276)
(26.5063 3.6 0)
(14.602 3.77981 2.65791)
(14.602 5.98733 2.65791)
(14.602 5.98733 0.442914)
(14.602 3.77981 0.442914)
(26.2795 3.77981 2.65791)
(26.2795 5.98733 0.442914)
(26.2795 5.98733 2.65791)
(26.2795 3.77981 0.442914)
(14.4 10.6 0.295276)
(14.4 13.2575 0.295276)
(14.4 13.2575 0)
(14.4 10.6 0)
(26.5063 10.6 0.295276)
(26.5063 13.2575 0)
(26.5063 13.2575 0.295276)
(26.5063 10.6 0)
(14.602 10.7798 2.65791)
(14.602 12.9873 2.65791)
(14.602 12.9873 0.442914)
(14.602 10.7798 0.442914)
(26.2795 10.7798 2.65791)
(26.2795 12.9873 0.442914)
(26.2795 12.9873 2.65791)
(26.2795 10.7798 0.442914)
(14.4 17.6 0.295276)
(14.4 20.2575 0.295276)
(14.4 20.2575 0)
(14.4 17.6 0)
(26.5063 17.6 0.295276)
(26.5063 20.2575 0)
(26.5063 20.2575 0.295276)
(26.5063 17.6 0)
(14.602 17.7798 2.65791)
(14.602 19.9873 2.65791)
(14.602 19.9873 0.442914)
(14.602 17.7798 0.442914)
(26.2795 17.7798 2.65791)
(26.2795 19.9873 0.442914)
(26.2795 19.9873 2.65791)
(26.2795 17.7798 0.442914)
(14.9408 3.75482 2.05041)
(14.9408 3.75482 1.05041)
(25.9408 3.75482 1.05041)
(25.9408 3.75482 2.05041)
(25.9408 6.01233 2.05041)
(25.9408 6.01233 1.05041)
(14.9408 6.01233 1.05041)
(14.9408 6.01233 2.05041)
(14.9408 10.7548 2.05041)
(14.9408 10.7548 1.05041)
(25.9408 10.7548 1.05041)
(25.9408 10.7548 2.05041)
(25.9408 13.0123 2.05041)
(25.9408 13.0123 1.05041)
(14.9408 13.0123 1.05041)
(14.9408 13.0123 2.05041)
(25.9408 20.0123 2.05041)
(25.9408 20.0123 1.05041)
(14.9408 20.0123 1.05041)
(14.9408 20.0123 2.05041)
(14.9408 17.7548 2.05041)
(14.9408 17.7548 1.05041)
(25.9408 17.7548 1.05041)
(25.9408 17.7548 2.05041)
(11.5408 2.41233 2.05041)
(11.5408 2.41233 1.05041)
(0.540758 2.41233 1.05041)
(0.540758 2.41233 2.05041)
(0.540758 0.154815 2.05041)
(0.540758 0.154815 1.05041)
(11.5408 0.154815 1.05041)
(11.5408 0.154815 2.05041)
(0.540758 7.15482 2.05041)
(0.540758 7.15482 1.05041)
(11.5408 7.15482 1.05041)
(11.5408 7.15482 2.05041)
(11.5408 9.41233 2.05041)
(11.5408 9.41233 1.05041)
(0.540758 9.41233 1.05041)
(0.540758 9.41233 2.05041)
(11.5408 16.4123 2.05041)
(11.5408 16.4123 1.05041)
(0.540758 16.4123 1.05041)
(0.540758 16.4123 2.05041)
(0.540758 14.1548 2.05041)
(0.540758 14.1548 1.05041)
(11.5408 14.1548 1.05041)
(11.5408 14.1548 2.05041)
(21.0646 4.07308 2.68291)
(21.106 4.15112 2.68291)
(21.1133 4.16944 2.68291)
(21.1087 4.52182 2.68291)
(21.0608 4.61206 2.68291)
(20.3617 3.95196 2.68291)
(20.402 3.92443 2.68291)
(20.3253 3.98266 2.68291)
(21.1356 4.24941 2.68291)
(21.1401 4.27816 2.68291)
(20.901 3.91816 2.68291)
(20.9767 3.9723 2.68291)
(20.8824 3.90789 2.68291)
(20.7974 3.87326 2.68291)
(20.2964 4.66775 2.68291)
(20.2731 4.64013 2.68291)
(20.3327 4.7036 2.68291)
(20.3201 4.69202 2.68291)
(20.9904 4.69484 2.68291)
(20.281 4.02955 2.68291)
(20.257 4.06112 2.68291)
(20.2219 4.11993 2.68291)
(20.2047 4.15785 2.68291)
(20.1831 4.22555 2.68291)
(20.1749 4.2674 2.68291)
(20.1695 4.339 2.68291)
(20.1713 4.38145 2.68291)
(20.3704 4.73395 2.68291)
(20.1824 4.45116 2.68291)
(20.1935 4.49086 2.68291)
(20.2189 4.55352 2.68291)
(20.2374 4.58786 2.68291)
(21.144 4.34379 2.68291)
(21.1413 4.39069 2.68291)
(20.7775 3.8677 2.68291)
(20.6906 3.85367 2.68291)
(20.671 3.85271 2.68291)
(20.5885 3.85731 2.68291)
(20.5705 3.8602 2.68291)
(20.52 3.87209 2.68291)
(20.576 4.82027 2.68291)
(20.4684 4.78914 2.68291)
(20.8997 4.7621 2.68291)
(20.7947 4.80708 2.68291)
(20.6838 4.82625 2.68291)
(20.9925 3.98664 2.68291)
(21.0528 4.05596 2.68291)
(21.1353 4.43144 2.68291)
(21.1301 4.45515 2.68291)
(20.4813 3.88521 2.68291)
(20.4586 3.89462 2.68291)
(21.772 3.85307 2.68291)
(21.7916 3.85404 2.68291)
(21.6715 3.86057 2.68291)
(21.6895 3.85768 2.68291)
(21.3229 4.12029 2.68291)
(21.358 4.06148 2.68291)
(21.3057 4.15822 2.68291)
(21.2841 4.22591 2.68291)
(21.2759 4.26776 2.68291)
(21.2705 4.33936 2.68291)
(21.2723 4.38182 2.68291)
(21.2834 4.45153 2.68291)
(21.2945 4.49122 2.68291)
(21.3199 4.55389 2.68291)
(21.8985 3.87362 2.68291)
(21.9834 3.90826 2.68291)
(22.002 3.91852 2.68291)
(21.3384 4.58822 2.68291)
(21.8785 3.86806 2.68291)
(21.3741 4.64049 2.68291)
(21.4211 4.69239 2.68291)
(21.3974 4.66811 2.68291)
(22.2366 4.24978 2.68291)
(22.2411 4.27852 2.68291)
(22.245 4.34415 2.68291)
(22.2143 4.16981 2.68291)
(22.207 4.15148 2.68291)
(22.1656 4.07344 2.68291)
(22.0777 3.97266 2.68291)
(22.0935 3.987 2.68291)
(22.2311 4.45551 2.68291)
(22.2097 4.52218 2.68291)
(22.2363 4.4318 2.68291)
(22.2423 4.39106 2.68291)
(21.5823 3.88557 2.68291)
(21.621 3.87245 2.68291)
(21.5596 3.89499 2.68291)
(21.503 3.9248 2.68291)
(21.4627 3.95233 2.68291)
(21.4263 3.98302 2.68291)
(21.382 4.02992 2.68291)
(21.4714 4.73431 2.68291)
(21.4337 4.70396 2.68291)
(22.1618 4.61243 2.68291)
(21.5694 4.7895 2.68291)
(21.7848 4.82662 2.68291)
(21.677 4.82063 2.68291)
(22.0007 4.76247 2.68291)
(21.8957 4.80744 2.68291)
(22.0914 4.69521 2.68291)
(22.1538 4.05632 2.68291)
(24.6771 5.73282 2.68291)
(24.6414 5.68056 2.68291)
(24.6229 5.64622 2.68291)
(25.0946 4.94637 2.68291)
(25.1815 4.96039 2.68291)
(25.2015 4.96595 2.68291)
(25.5173 5.26214 2.68291)
(25.5396 5.34211 2.68291)
(25.5441 5.37085 2.68291)
(25.2864 5.00059 2.68291)
(24.7004 5.76044 2.68291)
(24.7367 5.79629 2.68291)
(24.7241 5.78472 2.68291)
(25.5127 5.61451 2.68291)
(25.4648 5.70476 2.68291)
(24.7744 5.82664 2.68291)
(24.806 5.01713 2.68291)
(24.8626 4.98732 2.68291)
(24.7658 5.04466 2.68291)
(24.7293 5.07535 2.68291)
(24.685 5.12225 2.68291)
(24.661 5.15381 2.68291)
(24.6259 5.21262 2.68291)
(25.548 5.43648 2.68291)
(25.5453 5.48339 2.68291)
(24.6087 5.25055 2.68291)
(25.075 4.9454 2.68291)
(24.5871 5.31824 2.68291)
(24.9925 4.95001 2.68291)
(25.305 5.01085 2.68291)
(25.3808 5.06499 2.68291)
(25.3965 5.07933 2.68291)
(24.5789 5.36009 2.68291)
(24.9745 4.9529 2.68291)
(24.5735 5.43169 2.68291)
(24.924 4.96478 2.68291)
(24.5753 5.47415 2.68291)
(24.5864 5.54386 2.68291)
(24.5975 5.58355 2.68291)
(25.3944 5.78754 2.68291)
(24.8724 5.88183 2.68291)
(25.0878 5.91895 2.68291)
(24.98 5.91296 2.68291)
(25.3037 5.8548 2.68291)
(25.1987 5.89977 2.68291)
(25.5393 5.52413 2.68291)
(25.5341 5.54785 2.68291)
(24.8853 4.9779 2.68291)
(25.4686 5.16577 2.68291)
(25.51 5.24382 2.68291)
(25.4568 5.14865 2.68291)
(23.7616 3.89571 2.68291)
(23.7843 3.88629 2.68291)
(23.5404 4.58895 2.68291)
(23.5219 4.55461 2.68291)
(23.4965 4.49194 2.68291)
(23.5761 4.64122 2.68291)
(23.823 3.87318 2.68291)
(23.584 4.03064 2.68291)
(23.6283 3.98375 2.68291)
(23.56 4.06221 2.68291)
(23.5249 4.12102 2.68291)
(23.5077 4.15894 2.68291)
(23.4861 4.22664 2.68291)
(23.4779 4.26849 2.68291)
(23.4743 4.38254 2.68291)
(23.4725 4.34009 2.68291)
(23.8735 3.86129 2.68291)
(23.5994 4.66884 2.68291)
(23.6357 4.70469 2.68291)
(23.6231 4.69311 2.68291)
(23.6734 4.73503 2.68291)
(24.4443 4.39178 2.68291)
(24.4383 4.43253 2.68291)
(24.447 4.34488 2.68291)
(24.4431 4.27925 2.68291)
(24.4386 4.2505 2.68291)
(24.4163 4.17053 2.68291)
(24.204 3.91925 2.68291)
(24.2798 3.97339 2.68291)
(24.1854 3.90898 2.68291)
(24.1005 3.87434 2.68291)
(24.0805 3.86879 2.68291)
(23.9936 3.85476 2.68291)
(24.2955 3.98773 2.68291)
(24.3558 4.05705 2.68291)
(24.3676 4.07417 2.68291)
(23.974 3.8538 2.68291)
(23.8915 3.8584 2.68291)
(24.4331 4.45624 2.68291)
(24.4117 4.52291 2.68291)
(23.7714 4.79023 2.68291)
(24.2934 4.69593 2.68291)
(24.2027 4.76319 2.68291)
(24.0977 4.80816 2.68291)
(23.705 3.92552 2.68291)
(23.6647 3.95305 2.68291)
(23.4854 4.45225 2.68291)
(24.3638 4.61315 2.68291)
(23.879 4.82135 2.68291)
(23.9868 4.82734 2.68291)
(24.409 4.15221 2.68291)
(18.9067 4.52109 2.68291)
(18.8588 4.61134 2.68291)
(18.1597 3.95124 2.68291)
(18.2 3.92371 2.68291)
(18.1233 3.98193 2.68291)
(18.9113 4.16872 2.68291)
(18.9336 4.24869 2.68291)
(18.9381 4.27743 2.68291)
(18.904 4.15039 2.68291)
(18.8626 4.07235 2.68291)
(18.5954 3.87253 2.68291)
(18.6804 3.90717 2.68291)
(18.699 3.91743 2.68291)
(18.7747 3.97158 2.68291)
(18.5755 3.86698 2.68291)
(18.1307 4.70287 2.68291)
(18.1181 4.6913 2.68291)
(18.0944 4.66702 2.68291)
(18.7884 4.69412 2.68291)
(18.079 4.02883 2.68291)
(18.055 4.06039 2.68291)
(18.0199 4.1192 2.68291)
(18.0027 4.15713 2.68291)
(18.942 4.34306 2.68291)
(17.9811 4.22482 2.68291)
(17.9729 4.26667 2.68291)
(17.9675 4.33827 2.68291)
(17.9693 4.38073 2.68291)
(17.9804 4.45044 2.68291)
(18.1684 4.73322 2.68291)
(17.9915 4.49013 2.68291)
(18.0169 4.5528 2.68291)
(18.0354 4.58714 2.68291)
(18.0711 4.6394 2.68291)
(18.6977 4.76138 2.68291)
(18.4886 3.85295 2.68291)
(18.469 3.85198 2.68291)
(18.3865 3.85659 2.68291)
(18.3685 3.85948 2.68291)
(18.9394 4.38997 2.68291)
(18.2664 4.78841 2.68291)
(18.4818 4.82553 2.68291)
(18.374 4.81954 2.68291)
(18.5927 4.80635 2.68291)
(18.7905 3.98591 2.68291)
(18.8508 4.05523 2.68291)
(18.9333 4.43071 2.68291)
(18.9282 4.45442 2.68291)
(18.318 3.87136 2.68291)
(18.2793 3.88448 2.68291)
(18.2566 3.8939 2.68291)
(23.4725 5.43133 2.68291)
(23.4779 5.35973 2.68291)
(23.4743 5.47379 2.68291)
(23.4854 5.5435 2.68291)
(23.4965 5.58319 2.68291)
(23.5219 5.64585 2.68291)
(23.5761 5.73246 2.68291)
(23.5404 5.68019 2.68291)
(23.8735 4.95254 2.68291)
(23.8915 4.94964 2.68291)
(23.974 4.94504 2.68291)
(23.4861 5.31788 2.68291)
(23.5077 5.25019 2.68291)
(23.9936 4.94601 2.68291)
(24.0805 4.96003 2.68291)
(24.1005 4.96559 2.68291)
(24.4163 5.26177 2.68291)
(24.4386 5.34174 2.68291)
(24.4431 5.37049 2.68291)
(24.409 5.24345 2.68291)
(24.3676 5.16541 2.68291)
(24.2798 5.06463 2.68291)
(24.2955 5.07897 2.68291)
(23.6647 5.04429 2.68291)
(23.705 5.01677 2.68291)
(23.6283 5.07499 2.68291)
(23.584 5.12188 2.68291)
(24.1854 5.00022 2.68291)
(24.204 5.01049 2.68291)
(23.56 5.15345 2.68291)
(23.5994 5.76008 2.68291)
(23.6357 5.79593 2.68291)
(23.6231 5.78436 2.68291)
(24.4383 5.52377 2.68291)
(24.4331 5.54748 2.68291)
(24.4443 5.48302 2.68291)
(23.823 4.96442 2.68291)
(23.7843 4.97754 2.68291)
(23.7616 4.98696 2.68291)
(23.6734 5.82628 2.68291)
(24.447 5.43612 2.68291)
(24.4117 5.61415 2.68291)
(23.7714 5.88147 2.68291)
(24.3638 5.70439 2.68291)
(23.879 5.9126 2.68291)
(24.2027 5.85443 2.68291)
(24.0977 5.89941 2.68291)
(23.9868 5.91859 2.68291)
(24.2934 5.78718 2.68291)
(24.3558 5.14829 2.68291)
(23.5249 5.21226 2.68291)
(23.3153 4.17017 2.68291)
(23.3376 4.25014 2.68291)
(23.3421 4.27889 2.68291)
(23.308 4.15185 2.68291)
(23.2666 4.0738 2.68291)
(23.103 3.91888 2.68291)
(23.1787 3.97303 2.68291)
(23.0844 3.90862 2.68291)
(22.9995 3.87398 2.68291)
(22.9795 3.86843 2.68291)
(23.3107 4.52255 2.68291)
(23.2628 4.61279 2.68291)
(23.3321 4.45588 2.68291)
(23.346 4.34452 2.68291)
(23.3433 4.39142 2.68291)
(22.604 3.92516 2.68291)
(22.6606 3.89535 2.68291)
(22.8926 3.8544 2.68291)
(22.5637 3.95269 2.68291)
(22.873 3.85344 2.68291)
(22.5273 3.98338 2.68291)
(22.7905 3.85804 2.68291)
(22.483 4.03028 2.68291)
(22.7725 3.86093 2.68291)
(22.459 4.06184 2.68291)
(22.722 3.87281 2.68291)
(22.4239 4.12065 2.68291)
(22.4067 4.15858 2.68291)
(22.3851 4.22627 2.68291)
(22.3769 4.26812 2.68291)
(22.3715 4.33973 2.68291)
(22.3733 4.38218 2.68291)
(22.3844 4.45189 2.68291)
(22.3955 4.49158 2.68291)
(22.4209 4.55425 2.68291)
(22.4394 4.58859 2.68291)
(22.4751 4.64085 2.68291)
(22.4984 4.66847 2.68291)
(22.5221 4.69275 2.68291)
(22.5724 4.73467 2.68291)
(22.5347 4.70432 2.68291)
(23.1924 4.69557 2.68291)
(22.6704 4.78986 2.68291)
(23.1945 3.98737 2.68291)
(23.2548 4.05668 2.68291)
(23.3373 4.43216 2.68291)
(22.6833 3.88593 2.68291)
(22.8858 4.82698 2.68291)
(22.778 4.82099 2.68291)
(23.1017 4.76283 2.68291)
(22.9967 4.8078 2.68291)
(17.099 3.92335 2.68291)
(17.1556 3.89353 2.68291)
(17.8272 4.45406 2.68291)
(17.8057 4.52073 2.68291)
(17.7616 4.07199 2.68291)
(17.803 4.15003 2.68291)
(17.8103 4.16835 2.68291)
(17.7498 4.05487 2.68291)
(17.7578 4.61097 2.68291)
(17.0588 3.95087 2.68291)
(17.0223 3.98157 2.68291)
(16.9701 4.63904 2.68291)
(16.9344 4.58677 2.68291)
(16.9159 4.55243 2.68291)
(17.8326 4.24832 2.68291)
(17.8371 4.27707 2.68291)
(17.6895 3.98555 2.68291)
(17.6737 3.97121 2.68291)
(17.598 3.91707 2.68291)
(17.5794 3.9068 2.68291)
(17.4944 3.87217 2.68291)
(17.4745 3.86661 2.68291)
(17.0297 4.70251 2.68291)
(17.0171 4.69093 2.68291)
(16.9934 4.66666 2.68291)
(17.6874 4.69375 2.68291)
(16.978 4.02846 2.68291)
(16.954 4.06003 2.68291)
(16.9189 4.11884 2.68291)
(16.9017 4.15676 2.68291)
(16.8801 4.22446 2.68291)
(16.8719 4.26631 2.68291)
(16.8665 4.33791 2.68291)
(16.8683 4.38037 2.68291)
(16.8794 4.45008 2.68291)
(17.0674 4.73286 2.68291)
(16.8905 4.48977 2.68291)
(17.841 4.3427 2.68291)
(17.8384 4.3896 2.68291)
(17.3876 3.85259 2.68291)
(17.368 3.85162 2.68291)
(17.2855 3.85622 2.68291)
(17.2675 3.85912 2.68291)
(17.217 3.871 2.68291)
(17.1654 4.78805 2.68291)
(17.3808 4.82517 2.68291)
(17.273 4.81918 2.68291)
(17.5967 4.76101 2.68291)
(17.4917 4.80599 2.68291)
(17.8323 4.43035 2.68291)
(17.1783 3.88412 2.68291)
(25.4686 4.07453 2.68291)
(25.51 4.15257 2.68291)
(25.5173 4.1709 2.68291)
(25.3808 3.97375 2.68291)
(25.3965 3.98809 2.68291)
(25.305 3.91961 2.68291)
(25.2864 3.90934 2.68291)
(24.924 3.87354 2.68291)
(24.9745 3.86166 2.68291)
(24.8853 3.88666 2.68291)
(24.6771 4.64158 2.68291)
(24.6414 4.58931 2.68291)
(24.7004 4.6692 2.68291)
(24.7367 4.70505 2.68291)
(24.7241 4.69347 2.68291)
(24.7658 3.95341 2.68291)
(24.806 3.92589 2.68291)
(24.7293 3.98411 2.68291)
(24.685 4.031 2.68291)
(24.661 4.06257 2.68291)
(24.6259 4.12138 2.68291)
(25.548 4.34524 2.68291)
(25.5453 4.39215 2.68291)
(24.6087 4.15931 2.68291)
(25.5441 4.27961 2.68291)
(24.5871 4.227 2.68291)
(25.5396 4.25087 2.68291)
(24.5789 4.26885 2.68291)
(24.5753 4.38291 2.68291)
(24.5735 4.34045 2.68291)
(25.2015 3.87471 2.68291)
(25.1815 3.86915 2.68291)
(25.0946 3.85513 2.68291)
(25.075 3.85416 2.68291)
(24.9925 3.85876 2.68291)
(24.7744 4.7354 2.68291)
(24.8724 4.79059 2.68291)
(25.5393 4.43289 2.68291)
(25.5341 4.4566 2.68291)
(25.5127 4.52327 2.68291)
(25.4648 4.61352 2.68291)
(24.98 4.82172 2.68291)
(25.3037 4.76356 2.68291)
(25.1987 4.80853 2.68291)
(25.0878 4.82771 2.68291)
(25.3944 4.6963 2.68291)
(24.8626 3.89608 2.68291)
(24.5975 4.49231 2.68291)
(24.5864 4.45262 2.68291)
(25.4568 4.05741 2.68291)
(24.6229 4.55498 2.68291)
(19.3803 3.88484 2.68291)
(19.419 3.87172 2.68291)
(19.3576 3.89426 2.68291)
(19.0925 4.49049 2.68291)
(19.0814 4.4508 2.68291)
(19.1364 4.5875 2.68291)
(19.1179 4.55316 2.68291)
(19.57 3.85235 2.68291)
(19.5896 3.85331 2.68291)
(19.4695 3.85984 2.68291)
(19.4875 3.85695 2.68291)
(19.2243 3.9823 2.68291)
(19.2607 3.9516 2.68291)
(19.18 4.02919 2.68291)
(19.156 4.06075 2.68291)
(19.1209 4.11957 2.68291)
(19.1037 4.15749 2.68291)
(19.1721 4.63977 2.68291)
(19.0821 4.22518 2.68291)
(19.1954 4.66739 2.68291)
(19.0739 4.26703 2.68291)
(19.2317 4.70324 2.68291)
(19.2191 4.69166 2.68291)
(19.0703 4.38109 2.68291)
(19.0685 4.33864 2.68291)
(20.0391 4.2778 2.68291)
(20.043 4.34343 2.68291)
(20.0403 4.39033 2.68291)
(20.0346 4.24905 2.68291)
(20.0123 4.16908 2.68291)
(20.005 4.15076 2.68291)
(19.9636 4.07272 2.68291)
(19.8 3.9178 2.68291)
(19.8757 3.97194 2.68291)
(19.7814 3.90753 2.68291)
(19.6964 3.87289 2.68291)
(19.6765 3.86734 2.68291)
(19.2694 4.73358 2.68291)
(20.0343 4.43107 2.68291)
(20.0292 4.45479 2.68291)
(19.301 3.92407 2.68291)
(19.3674 4.78877 2.68291)
(19.8915 3.98628 2.68291)
(19.9518 4.05559 2.68291)
(19.475 4.8199 2.68291)
(20.0077 4.52146 2.68291)
(19.9598 4.6117 2.68291)
(19.7987 4.76174 2.68291)
(19.6937 4.80671 2.68291)
(19.5828 4.82589 2.68291)
(19.8894 4.69448 2.68291)
(18.8626 5.1636 2.68291)
(18.904 5.24164 2.68291)
(18.9113 5.25996 2.68291)
(18.8508 5.14647 2.68291)
(18.7905 5.07716 2.68291)
(18.7747 5.06282 2.68291)
(18.699 5.00868 2.68291)
(18.6804 4.99841 2.68291)
(18.0354 5.67838 2.68291)
(18.0169 5.64404 2.68291)
(17.9915 5.58137 2.68291)
(18.9067 5.61234 2.68291)
(18.8588 5.70258 2.68291)
(18.1597 5.04248 2.68291)
(18.2 5.01495 2.68291)
(18.1233 5.07317 2.68291)
(18.0944 5.75826 2.68291)
(18.0711 5.73065 2.68291)
(18.9336 5.33993 2.68291)
(18.9381 5.36868 2.68291)
(18.5954 4.96377 2.68291)
(18.7884 5.78536 2.68291)
(18.079 5.12007 2.68291)
(18.1307 5.79411 2.68291)
(18.1181 5.78254 2.68291)
(18.5755 4.95822 2.68291)
(18.1684 5.82446 2.68291)
(18.055 5.15163 2.68291)
(18.0199 5.21044 2.68291)
(18.0027 5.24837 2.68291)
(17.9811 5.31606 2.68291)
(17.9729 5.35791 2.68291)
(17.9675 5.42952 2.68291)
(17.9693 5.47197 2.68291)
(17.9804 5.54168 2.68291)
(18.942 5.43431 2.68291)
(18.6977 5.85262 2.68291)
(18.9394 5.48121 2.68291)
(18.4886 4.94419 2.68291)
(18.469 4.94322 2.68291)
(18.3865 4.94783 2.68291)
(18.3685 4.95072 2.68291)
(18.318 4.9626 2.68291)
(18.2664 5.87965 2.68291)
(18.4818 5.91677 2.68291)
(18.374 5.91078 2.68291)
(18.5927 5.89759 2.68291)
(18.9333 5.52195 2.68291)
(18.9282 5.54567 2.68291)
(18.2793 4.97572 2.68291)
(18.2566 4.98514 2.68291)
(16.267 3.85126 2.68291)
(16.2866 3.85222 2.68291)
(16.1845 3.85586 2.68291)
(16.1665 3.85875 2.68291)
(16.116 3.87064 2.68291)
(15.9287 4.70215 2.68291)
(15.9161 4.69057 2.68291)
(15.8924 4.6663 2.68291)
(16.3735 3.86625 2.68291)
(16.3934 3.8718 2.68291)
(16.7093 4.16799 2.68291)
(16.7316 4.24796 2.68291)
(16.7361 4.27671 2.68291)
(16.5885 3.98519 2.68291)
(16.6488 4.05451 2.68291)
(16.5728 3.97085 2.68291)
(16.4784 3.90644 2.68291)
(16.497 3.91671 2.68291)
(15.9664 4.73249 2.68291)
(16.0546 3.89317 2.68291)
(16.0773 3.88375 2.68291)
(16.0644 4.78769 2.68291)
(16.7047 4.52037 2.68291)
(16.6568 4.61061 2.68291)
(16.7262 4.4537 2.68291)
(16.172 4.81881 2.68291)
(15.998 3.92298 2.68291)
(15.9578 3.95051 2.68291)
(15.9213 3.98121 2.68291)
(16.4957 4.76065 2.68291)
(16.3907 4.80562 2.68291)
(16.2798 4.8248 2.68291)
(15.877 4.0281 2.68291)
(16.5864 4.69339 2.68291)
(15.853 4.05967 2.68291)
(15.8179 4.11848 2.68291)
(15.8007 4.1564 2.68291)
(15.7791 4.22409 2.68291)
(15.7709 4.26594 2.68291)
(15.7673 4.38 2.68291)
(15.7655 4.33755 2.68291)
(16.74 4.34234 2.68291)
(16.7374 4.38924 2.68291)
(16.7313 4.42998 2.68291)
(15.7784 4.44971 2.68291)
(15.7895 4.4894 2.68291)
(15.8334 4.58641 2.68291)
(15.8149 4.55207 2.68291)
(16.6606 4.07163 2.68291)
(16.702 4.14967 2.68291)
(15.8691 4.63868 2.68291)
(21.1133 5.26068 2.68291)
(21.1356 5.34066 2.68291)
(21.1401 5.3694 2.68291)
(20.9767 5.06354 2.68291)
(20.9925 5.07788 2.68291)
(20.901 5.0094 2.68291)
(20.8824 4.99913 2.68291)
(20.7974 4.9645 2.68291)
(21.144 5.43503 2.68291)
(21.1087 5.61306 2.68291)
(21.0608 5.70331 2.68291)
(21.1301 5.54639 2.68291)
(20.402 5.01568 2.68291)
(20.4586 4.98587 2.68291)
(20.3617 5.0432 2.68291)
(20.3253 5.0739 2.68291)
(20.281 5.1208 2.68291)
(20.7775 4.95894 2.68291)
(20.257 5.15236 2.68291)
(20.6906 4.94492 2.68291)
(20.2219 5.21117 2.68291)
(20.671 4.94395 2.68291)
(20.2047 5.2491 2.68291)
(20.5885 4.94855 2.68291)
(20.1831 5.31679 2.68291)
(20.5705 4.95145 2.68291)
(20.1749 5.35864 2.68291)
(20.52 4.96333 2.68291)
(20.1695 5.43024 2.68291)
(20.1713 5.4727 2.68291)
(21.1413 5.48194 2.68291)
(20.1824 5.54241 2.68291)
(20.1935 5.5821 2.68291)
(20.2189 5.64477 2.68291)
(20.2374 5.6791 2.68291)
(20.2731 5.73137 2.68291)
(20.2964 5.75899 2.68291)
(20.3201 5.78327 2.68291)
(20.3704 5.82519 2.68291)
(20.3327 5.79484 2.68291)
(20.9904 5.78609 2.68291)
(20.4684 5.88038 2.68291)
(21.1353 5.52268 2.68291)
(21.0528 5.1472 2.68291)
(21.0646 5.16432 2.68291)
(20.4813 4.97645 2.68291)
(20.6838 5.9175 2.68291)
(20.576 5.91151 2.68291)
(20.8997 5.85335 2.68291)
(20.7947 5.89832 2.68291)
(21.106 5.24236 2.68291)
(23.2666 5.16505 2.68291)
(23.308 5.24309 2.68291)
(23.3153 5.26141 2.68291)
(23.2548 5.14793 2.68291)
(23.1945 5.07861 2.68291)
(23.1787 5.06427 2.68291)
(23.103 5.01013 2.68291)
(22.5637 5.04393 2.68291)
(22.604 5.0164 2.68291)
(22.5273 5.07463 2.68291)
(23.3107 5.61379 2.68291)
(23.2628 5.70403 2.68291)
(23.3376 5.34138 2.68291)
(23.3421 5.37013 2.68291)
(23.0844 4.99986 2.68291)
(22.9995 4.96522 2.68291)
(22.9795 4.95967 2.68291)
(23.1924 5.78681 2.68291)
(22.4239 5.2119 2.68291)
(22.459 5.15309 2.68291)
(22.4067 5.24982 2.68291)
(22.3851 5.31752 2.68291)
(22.3769 5.35936 2.68291)
(22.3715 5.43097 2.68291)
(22.3733 5.47342 2.68291)
(22.4209 5.64549 2.68291)
(22.3955 5.58282 2.68291)
(22.4394 5.67983 2.68291)
(22.4751 5.7321 2.68291)
(22.8926 4.94564 2.68291)
(22.4984 5.75972 2.68291)
(22.5221 5.78399 2.68291)
(22.5724 5.82591 2.68291)
(22.5347 5.79557 2.68291)
(23.1017 5.85407 2.68291)
(22.6704 5.88111 2.68291)
(23.346 5.43576 2.68291)
(22.8858 5.91822 2.68291)
(22.778 5.91223 2.68291)
(22.9967 5.89904 2.68291)
(23.3433 5.48266 2.68291)
(22.873 4.94468 2.68291)
(22.7905 4.94928 2.68291)
(22.7725 4.95217 2.68291)
(22.722 4.96406 2.68291)
(22.483 5.12152 2.68291)
(23.3373 5.5234 2.68291)
(23.3321 5.54712 2.68291)
(22.6833 4.97717 2.68291)
(22.3844 5.54313 2.68291)
(22.6606 4.98659 2.68291)
(14.7681 4.63831 2.68291)
(14.7324 4.58605 2.68291)
(14.7139 4.55171 2.68291)
(15.6083 4.16763 2.68291)
(15.6306 4.2476 2.68291)
(15.6351 4.27635 2.68291)
(15.601 4.14931 2.68291)
(15.5596 4.07126 2.68291)
(15.396 3.91634 2.68291)
(15.4718 3.97049 2.68291)
(15.3774 3.90608 2.68291)
(15.2924 3.87144 2.68291)
(15.2725 3.86589 2.68291)
(15.639 4.34198 2.68291)
(15.6037 4.52001 2.68291)
(15.5558 4.61025 2.68291)
(15.6251 4.45334 2.68291)
(14.897 3.92262 2.68291)
(14.9536 3.89281 2.68291)
(14.8567 3.95015 2.68291)
(14.8203 3.98084 2.68291)
(14.776 4.02774 2.68291)
(14.752 4.0593 2.68291)
(14.7169 4.11811 2.68291)
(14.6997 4.15604 2.68291)
(15.6363 4.38888 2.68291)
(14.6781 4.22373 2.68291)
(15.1856 3.85186 2.68291)
(14.6699 4.26558 2.68291)
(15.166 3.85089 2.68291)
(14.6645 4.33718 2.68291)
(15.0835 3.8555 2.68291)
(14.6663 4.37964 2.68291)
(15.0655 3.85839 2.68291)
(15.015 3.87027 2.68291)
(14.6774 4.44935 2.68291)
(14.6885 4.48904 2.68291)
(14.7914 4.66593 2.68291)
(14.8151 4.69021 2.68291)
(14.8654 4.73213 2.68291)
(14.8277 4.70178 2.68291)
(14.9763 3.88339 2.68291)
(15.6303 4.42962 2.68291)
(15.4854 4.69303 2.68291)
(14.9634 4.78732 2.68291)
(15.1788 4.82444 2.68291)
(15.071 4.81845 2.68291)
(15.3947 4.76029 2.68291)
(15.2897 4.80526 2.68291)
(15.4875 3.98482 2.68291)
(15.5478 4.05414 2.68291)
(15.6083 5.25887 2.68291)
(15.6306 5.33884 2.68291)
(15.6351 5.36759 2.68291)
(15.396 5.00759 2.68291)
(15.4718 5.06173 2.68291)
(15.3774 4.99732 2.68291)
(15.2924 4.96268 2.68291)
(15.2725 4.95713 2.68291)
(15.639 5.43322 2.68291)
(14.7914 5.75717 2.68291)
(14.7681 5.72956 2.68291)
(14.8277 5.79303 2.68291)
(14.8151 5.78145 2.68291)
(15.6037 5.61125 2.68291)
(15.5558 5.70149 2.68291)
(15.6251 5.54458 2.68291)
(14.897 5.01386 2.68291)
(14.9536 4.98405 2.68291)
(14.8567 5.04139 2.68291)
(15.6363 5.48012 2.68291)
(14.8203 5.07208 2.68291)
(14.776 5.11898 2.68291)
(14.752 5.15054 2.68291)
(15.1856 4.9431 2.68291)
(14.7169 5.20935 2.68291)
(15.166 4.94214 2.68291)
(14.6997 5.24728 2.68291)
(15.0835 4.94674 2.68291)
(14.6781 5.31497 2.68291)
(15.0655 4.94963 2.68291)
(14.8654 5.82337 2.68291)
(15.015 4.96151 2.68291)
(14.6699 5.35682 2.68291)
(14.6645 5.42843 2.68291)
(14.6663 5.47088 2.68291)
(14.6774 5.54059 2.68291)
(14.6885 5.58028 2.68291)
(14.7139 5.64295 2.68291)
(14.7324 5.67729 2.68291)
(15.4854 5.78427 2.68291)
(14.9634 5.87857 2.68291)
(15.6303 5.52086 2.68291)
(15.1788 5.91568 2.68291)
(15.071 5.90969 2.68291)
(14.9763 4.97463 2.68291)
(15.3947 5.85153 2.68291)
(15.2897 5.8965 2.68291)
(15.5596 5.16251 2.68291)
(15.601 5.24055 2.68291)
(15.5478 5.14538 2.68291)
(15.4875 5.07607 2.68291)
(16.6606 5.16287 2.68291)
(16.702 5.24091 2.68291)
(16.7093 5.25923 2.68291)
(15.8334 5.67765 2.68291)
(15.8149 5.64331 2.68291)
(15.7895 5.58065 2.68291)
(16.7316 5.3392 2.68291)
(16.7361 5.36795 2.68291)
(16.6488 5.14575 2.68291)
(16.5885 5.07643 2.68291)
(16.5728 5.06209 2.68291)
(16.497 5.00795 2.68291)
(16.3934 4.96305 2.68291)
(16.4784 4.99768 2.68291)
(16.3735 4.95749 2.68291)
(15.9287 5.79339 2.68291)
(15.9161 5.78181 2.68291)
(15.8924 5.75754 2.68291)
(16.7047 5.61161 2.68291)
(16.6568 5.70185 2.68291)
(16.7262 5.54494 2.68291)
(15.998 5.01423 2.68291)
(16.0546 4.98441 2.68291)
(15.9578 5.04175 2.68291)
(15.9213 5.07245 2.68291)
(15.877 5.11934 2.68291)
(15.853 5.15091 2.68291)
(15.8179 5.20972 2.68291)
(15.8007 5.24764 2.68291)
(15.7791 5.31534 2.68291)
(16.74 5.43358 2.68291)
(16.7374 5.48048 2.68291)
(15.7709 5.35719 2.68291)
(16.2866 4.94347 2.68291)
(15.7655 5.42879 2.68291)
(16.267 4.9425 2.68291)
(15.7673 5.47124 2.68291)
(16.1845 4.9471 2.68291)
(16.1665 4.95 2.68291)
(15.7784 5.54095 2.68291)
(16.116 4.96188 2.68291)
(15.9664 5.82374 2.68291)
(15.8691 5.72992 2.68291)
(16.172 5.91006 2.68291)
(16.0644 5.87893 2.68291)
(16.5864 5.78463 2.68291)
(16.4957 5.85189 2.68291)
(16.3907 5.89686 2.68291)
(16.2798 5.91605 2.68291)
(16.7313 5.52123 2.68291)
(16.0773 4.975 2.68291)
(21.3229 5.21153 2.68291)
(21.358 5.15272 2.68291)
(21.3057 5.24946 2.68291)
(21.2841 5.31715 2.68291)
(21.2759 5.359 2.68291)
(21.2705 5.4306 2.68291)
(21.2723 5.47306 2.68291)
(21.2834 5.54277 2.68291)
(21.2945 5.58246 2.68291)
(21.3384 5.67947 2.68291)
(21.3199 5.64513 2.68291)
(21.6715 4.95181 2.68291)
(21.6895 4.94892 2.68291)
(21.772 4.94431 2.68291)
(22.2143 5.26105 2.68291)
(22.2366 5.34102 2.68291)
(22.2411 5.36977 2.68291)
(22.207 5.24273 2.68291)
(21.8985 4.96486 2.68291)
(21.9834 4.9995 2.68291)
(22.002 5.00976 2.68291)
(21.4627 5.04357 2.68291)
(21.503 5.01604 2.68291)
(21.4263 5.07426 2.68291)
(21.3741 5.73173 2.68291)
(21.3974 5.75935 2.68291)
(21.4337 5.7952 2.68291)
(21.4211 5.78363 2.68291)
(22.245 5.4354 2.68291)
(22.2311 5.54676 2.68291)
(22.2097 5.61343 2.68291)
(22.2363 5.52304 2.68291)
(22.2423 5.4823 2.68291)
(22.1656 5.16468 2.68291)
(22.1538 5.14756 2.68291)
(21.621 4.96369 2.68291)
(22.0935 5.07825 2.68291)
(21.5823 4.97681 2.68291)
(22.0777 5.06391 2.68291)
(21.5596 4.98623 2.68291)
(21.4714 5.82555 2.68291)
(21.5694 5.88074 2.68291)
(22.1618 5.70367 2.68291)
(21.8785 4.95931 2.68291)
(21.7916 4.94528 2.68291)
(21.677 5.91187 2.68291)
(22.0007 5.85371 2.68291)
(21.8957 5.89868 2.68291)
(21.7848 5.91786 2.68291)
(22.0914 5.78645 2.68291)
(21.382 5.12116 2.68291)
(17.8057 5.61197 2.68291)
(17.7578 5.70222 2.68291)
(17.0588 5.04212 2.68291)
(17.099 5.01459 2.68291)
(17.0223 5.07281 2.68291)
(16.8719 5.35755 2.68291)
(16.8801 5.3157 2.68291)
(16.9017 5.24801 2.68291)
(17.8103 5.2596 2.68291)
(17.8326 5.33957 2.68291)
(17.8371 5.36831 2.68291)
(17.598 5.00831 2.68291)
(17.6737 5.06245 2.68291)
(17.5794 4.99804 2.68291)
(17.4944 4.96341 2.68291)
(17.4745 4.95785 2.68291)
(16.978 5.11971 2.68291)
(17.6874 5.785 2.68291)
(16.9344 5.67802 2.68291)
(16.9159 5.64368 2.68291)
(16.9701 5.73028 2.68291)
(16.9934 5.7579 2.68291)
(17.0297 5.79375 2.68291)
(17.0171 5.78218 2.68291)
(16.954 5.15127 2.68291)
(16.9189 5.21008 2.68291)
(17.0674 5.8241 2.68291)
(16.8665 5.42915 2.68291)
(16.8683 5.47161 2.68291)
(16.8794 5.54132 2.68291)
(16.8905 5.58101 2.68291)
(17.5967 5.85226 2.68291)
(17.841 5.43394 2.68291)
(17.8384 5.48085 2.68291)
(17.3876 4.94383 2.68291)
(17.368 4.94286 2.68291)
(17.2855 4.94747 2.68291)
(17.1654 5.87929 2.68291)
(17.2675 4.95036 2.68291)
(17.3808 5.91641 2.68291)
(17.273 5.91042 2.68291)
(17.217 4.96224 2.68291)
(17.4917 5.89723 2.68291)
(17.8323 5.52159 2.68291)
(17.8272 5.5453 2.68291)
(17.1783 4.97536 2.68291)
(17.1556 4.98478 2.68291)
(17.7616 5.16323 2.68291)
(17.803 5.24127 2.68291)
(17.7498 5.14611 2.68291)
(17.6895 5.07679 2.68291)
(20.0123 5.26032 2.68291)
(20.0346 5.34029 2.68291)
(20.0391 5.36904 2.68291)
(20.005 5.242 2.68291)
(19.9636 5.16396 2.68291)
(19.8 5.00904 2.68291)
(19.8757 5.06318 2.68291)
(19.7814 4.99877 2.68291)
(20.0077 5.6127 2.68291)
(19.9598 5.70294 2.68291)
(20.0292 5.54603 2.68291)
(19.6964 4.96413 2.68291)
(19.301 5.01531 2.68291)
(19.3576 4.9855 2.68291)
(19.2607 5.04284 2.68291)
(19.2243 5.07354 2.68291)
(19.18 5.12043 2.68291)
(19.156 5.152 2.68291)
(19.1209 5.21081 2.68291)
(19.1037 5.24873 2.68291)
(19.0821 5.31643 2.68291)
(20.043 5.43467 2.68291)
(19.0739 5.35828 2.68291)
(19.1721 5.73101 2.68291)
(19.1364 5.67874 2.68291)
(19.1954 5.75863 2.68291)
(19.2191 5.7829 2.68291)
(19.2694 5.82482 2.68291)
(19.2317 5.79448 2.68291)
(19.0703 5.47233 2.68291)
(19.0685 5.42988 2.68291)
(19.8894 5.78572 2.68291)
(19.3674 5.88002 2.68291)
(19.6765 4.95858 2.68291)
(19.5896 4.94455 2.68291)
(19.57 4.94359 2.68291)
(19.4875 4.94819 2.68291)
(19.4695 4.95108 2.68291)