/*--------------------------------*- C++ -*----------------------------------*\
  =========                 |
  \\      /  F ield         | OpenFOAM: The Open Source CFD Toolbox
   \\    /   O peration     | Website:  https://openfoam.org
    \\  /    A nd           | Version:  10
     \\/     M anipulation  |
\*---------------------------------------------------------------------------*/
FoamFile
{
    format      ascii;
    class       dictionary;
    object      fvSolution;
}
// * * * * * * * * * * * * * * * * * * * * * * * * * * * * * * * * * * * * * //

solvers
{
    p
    {
        solver          GAMG;
        smoother        DIC;

        tolerance       1e-6;
        relTol          0.01;
    }

    "(U|k|epsilon|h)"
    {
        solver          PBiCGStab;
        preconditioner  DILU;
        tolerance       1e-8;
        relTol          0;
    }
}

SIMPLE
{
    residualControl
    {
        p               1e-4;
        U               1e-5;
        "(k|epsilon|h)"   1e-3;
    }
 //   consistent yes;
    nNonOrthogonalCorrectors 0;
}

relaxationFactors
{
    fields
    {
        p               0.3;
    }

    equations
    {
        U               0.7;
        h               0.7;
        "(k|epsilon)"     0.7;
    }
}

// ************************************************************************* //
